# generated using pymatgen
data_SiC
_symmetry_space_group_name_H-M   'P 1'
_cell_length_a   3.07662101
_cell_length_b   3.07662101
_cell_length_c   15.09808432
_cell_angle_alpha   90.00000000
_cell_angle_beta   90.00000000
_cell_angle_gamma   120.00000000
_symmetry_Int_Tables_number   1
_chemical_formula_structural   SiC
_chemical_formula_sum   'Si6 C6'
_cell_volume   123.76575093
_cell_formula_units_Z   6
loop_
 _symmetry_equiv_pos_site_id
 _symmetry_equiv_pos_as_xyz
  1  'x, y, z'
loop_
 _atom_type_symbol
 _atom_type_oxidation_number
  Si4+  4.0
  C4-  -4.0
loop_
 _atom_site_type_symbol
 _atom_site_label
 _atom_site_symmetry_multiplicity
 _atom_site_fract_x
 _atom_site_fract_y
 _atom_site_fract_z
 _atom_site_occupancy
  Si4+  Si0  1  0.33333333  0.66666667  0.83298615  1
  Si4+  Si1  1  0.66666667  0.33333333  0.33298615  1
  Si4+  Si2  1  0.66666667  0.33333333  0.66650060  1
  Si4+  Si3  1  0.33333333  0.66666667  0.16650060  1
  Si4+  Si4  1  0.00000000  0.00000000  0.49972942  1
  Si4+  Si5  1  0.00000000  0.00000000  0.99972942  1
  C4-  C6  1  0.00000000  0.00000000  0.87436641  1
  C4-  C7  1  0.00000000  0.00000000  0.37436641  1
  C4-  C8  1  0.33333333  0.66666667  0.70799678  1
  C4-  C9  1  0.66666667  0.33333333  0.20799678  1
  C4-  C10  1  0.66666667  0.33333333  0.54152164  1
  C4-  C11  1  0.33333333  0.66666667  0.04152164  1
